LAMMPS (17 Nov 2016)
# Affiliation: Dept. Materials Science and Engineering
# University of Arizona
# Abduljabar Alsayoud

# Units energy:eV time:ps distance:angstrom flux:energy*velocity
#---------Sim variables---------------
variable fileprefix string  nptAl101010
variable temp_s equal '250.0'
variable press_s equal '1.0'

#-----------Setup----------------------
units metal            #Energy = eV , Distance= Angstroms
dimension 3
boundary p p p         #Periodic boundary conditions
atom_style atomic

# Read config files

read_data data.nptAl101010
  orthogonal box = (-16.3567 -16.3567 -16.3567) to (24.4346 24.4346 24.4346)
  reading atoms ...
  4000 atoms

pair_style eam/alloy
pair_coeff * *  AlCu.eam.alloy Al
Reading potential file AlCu.eam.alloy with DATE: 2008-10-01
neighbor 2.0 bin
neigh_modify delay 10 check yes

#--------- NVT-------
reset_timestep 0
timestep 0.001

thermo 1000
thermo_style custom step pe ke etotal enthalpy temp vol press
velocity all create 250 1518772
fix 1 all nvt temp 250 250 0.5
dump 2 all atom 2000 dump.nvtnptAl101010
run 60000
  1 neighbor list requests
  update every 1 steps, delay 10 steps, check yes
Step PotEng KinEng TotEng Enthalpy Temp Volume Press
0    -13135.15    129.22783   -13005.922   -12990.714          250    67873.636    358.99153
Averages over the last 31 of 61 rows, steps 30000 to 60000:
PotEng KinEng TotEng Enthalpy Temp Volume Press
-13137.7 129.459 -13008.2 -13004.5 250.447 67873.6 86.8344
Loop time of 850.035 on 1 procs for 60000 steps with 4000 atoms

unfix 1
undump 2

######################################
# SIMULATION DONE
print "All done"
All done
